


 28 28  0  0  0  0  0  0  0  0999 V2000
   12.9664  -19.2351   -7.2121 C   0  0  0  0  0  0  0  0  0  0  0  0
   14.4419  -19.0034   -6.8177 C   0  0  0  0  0  0  0  0  0  0  0  0
   14.7938  -17.5902   -7.2887 C   0  0  0  0  0  0  0  0  0  0  0  0
   13.7929  -17.3090   -8.3449 C   0  0  0  0  0  0  0  0  0  0  0  0
   13.8556  -16.3328   -9.0765 O   0  0  0  0  0  0  0  0  0  0  0  0
   12.7263  -18.3444   -8.4494 C   0  0  0  0  0  0  0  0  0  0  0  0
   14.6225  -19.1088   -5.4292 O   0  0  0  0  0  0  0  0  0  0  0  0
   14.7522  -20.0714   -5.2301 H   0  0  0  0  0  0  0  0  0  0  0  0
   11.6653  -21.3291   -6.8755 C   0  0  0  0  0  0  0  0  0  0  0  0
   12.6713  -20.6894   -7.4925 C   0  0  0  0  0  0  0  0  0  0  0  0
   11.3770  -22.7941   -7.1185 C   0  0  0  0  0  0  0  0  0  0  0  0
   12.4745  -23.5708   -6.7119 O   0  0  0  0  0  0  0  0  0  0  0  0
   13.1950  -23.4193   -7.3778 H   0  0  0  0  0  0  0  0  0  0  0  0
   10.1194  -23.2599   -6.3636 C   0  0  0  0  0  0  0  0  0  0  0  0
    9.6976  -24.6861   -6.7635 C   0  0  0  0  0  0  0  0  0  0  0  0
    8.9455  -24.7253   -8.1024 C   0  0  0  0  0  0  0  0  0  0  0  0
    6.9937  -23.7422   -9.3712 C   0  0  0  0  0  0  0  0  0  0  0  0
    7.5282  -24.1374   -7.9977 C   0  0  0  0  0  0  0  0  0  0  0  0
   11.2974  -17.7619   -8.5135 C   0  0  0  0  0  0  0  0  0  0  0  0
   10.5388  -17.8411   -7.2061 C   0  0  0  0  0  0  0  0  0  0  0  0
    9.6537  -16.9135   -6.8035 C   0  0  0  0  0  0  0  0  0  0  0  0
    9.2605  -15.6918   -7.6030 C   0  0  0  0  0  0  0  0  0  0  0  0
    7.7954  -15.3049   -7.3505 C   0  0  0  0  0  0  0  0  0  0  0  0
    7.0066  -15.0000   -8.6371 C   0  0  0  0  0  0  0  0  0  0  0  0
    5.6027  -15.5246   -8.5758 C   0  0  0  0  0  0  0  0  0  0  0  0
    4.8714  -15.2451   -7.5884 O   0  0  0  0  0  0  0  0  0  0  0  0
    5.1066  -16.3308   -9.5944 O   0  0  0  0  0  0  0  0  0  0  0  0
    4.1620  -16.6921   -9.5577 H   0  0  0  0  0  0  0  0  0  0  0  0
  1 10  1  0  0  0
  1  2  1  0  0  0
  1  6  1  0  0  0
  2  3  1  0  0  0
  2  7  1  0  0  0
  3  4  1  0  0  0
  4  5  2  0  0  0
  4  6  1  0  0  0
  6 19  1  0  0  0
  7  8  1  0  0  0
  9 11  1  0  0  0
  9 10  2  0  0  0
 11 14  1  0  0  0
 11 12  1  0  0  0
 12 13  1  0  0  0
 14 15  1  0  0  0
 15 16  1  0  0  0
 16 18  1  0  0  0
 17 18  1  0  0  0
 19 20  1  0  0  0
 20 21  2  0  0  0
 21 22  1  0  0  0
 22 23  1  0  0  0
 23 24  1  0  0  0
 24 25  1  0  0  0
 25 26  2  0  0  0
 25 27  1  0  0  0
 27 28  1  0  0  0
M  END
> <COMPND>
KG8hKT.pdb

> <AUTHOR>
GENERATED BY OPEN BABEL 3.1.0

> <MASTER>
        0    0    0    0    0    0    0    0   28    0   28    0

> <minimizedAffinity>
-8.23860

> <CNNscore>
0.7887125015

> <CNNaffinity>
5.5458159447

> <CNN_VS>
4.3740544319

> <CNNaffinity_variance>
0.0827082470

$$$$



 28 28  0  0  0  0  0  0  0  0999 V2000
   10.4703  -18.3915   -7.6418 C   0  0  0  0  0  0  0  0  0  0  0  0
    9.8042  -18.7044   -6.2837 C   0  0  0  0  0  0  0  0  0  0  0  0
    9.7729  -17.3849   -5.5085 C   0  0  0  0  0  0  0  0  0  0  0  0
   10.8371  -16.5740   -6.1458 C   0  0  0  0  0  0  0  0  0  0  0  0
   11.2258  -15.5103   -5.6878 O   0  0  0  0  0  0  0  0  0  0  0  0
   11.4073  -17.1945   -7.3747 C   0  0  0  0  0  0  0  0  0  0  0  0
    8.4997  -19.1950   -6.4552 O   0  0  0  0  0  0  0  0  0  0  0  0
    8.5793  -20.1716   -6.6066 H   0  0  0  0  0  0  0  0  0  0  0  0
   11.3409  -20.7180   -7.4993 C   0  0  0  0  0  0  0  0  0  0  0  0
   11.2132  -19.5812   -8.2016 C   0  0  0  0  0  0  0  0  0  0  0  0
   12.1107  -21.9072   -8.0302 C   0  0  0  0  0  0  0  0  0  0  0  0
   13.4459  -21.8431   -7.5988 O   0  0  0  0  0  0  0  0  0  0  0  0
   13.8774  -21.1100   -8.1106 H   0  0  0  0  0  0  0  0  0  0  0  0
   11.4923  -23.2384   -7.5679 C   0  0  0  0  0  0  0  0  0  0  0  0
   11.8734  -24.4080   -8.4945 C   0  0  0  0  0  0  0  0  0  0  0  0
   12.9141  -25.3454   -7.8637 C   0  0  0  0  0  0  0  0  0  0  0  0
   13.9039  -26.1792   -5.6932 C   0  0  0  0  0  0  0  0  0  0  0  0
   12.6808  -25.5541   -6.3579 C   0  0  0  0  0  0  0  0  0  0  0  0
   11.5124  -16.2235   -8.5710 C   0  0  0  0  0  0  0  0  0  0  0  0
   10.4116  -16.3860   -9.5971 C   0  0  0  0  0  0  0  0  0  0  0  0
    9.2981  -15.6339   -9.6173 C   0  0  0  0  0  0  0  0  0  0  0  0
    9.0023  -14.5043   -8.6567 C   0  0  0  0  0  0  0  0  0  0  0  0
    7.8156  -14.8433   -7.7419 C   0  0  0  0  0  0  0  0  0  0  0  0
    7.2593  -16.2634   -7.9528 C   0  0  0  0  0  0  0  0  0  0  0  0
    5.7701  -16.2649   -8.1317 C   0  0  0  0  0  0  0  0  0  0  0  0
    5.0680  -15.3931   -7.5531 O   0  0  0  0  0  0  0  0  0  0  0  0
    5.1561  -17.2320   -8.9202 O   0  0  0  0  0  0  0  0  0  0  0  0
    4.1515  -17.2421   -9.0418 H   0  0  0  0  0  0  0  0  0  0  0  0
  1 10  1  0  0  0
  1  2  1  0  0  0
  1  6  1  0  0  0
  2  3  1  0  0  0
  2  7  1  0  0  0
  3  4  1  0  0  0
  4  5  2  0  0  0
  4  6  1  0  0  0
  6 19  1  0  0  0
  7  8  1  0  0  0
  9 11  1  0  0  0
  9 10  2  0  0  0
 11 14  1  0  0  0
 11 12  1  0  0  0
 12 13  1  0  0  0
 14 15  1  0  0  0
 15 16  1  0  0  0
 16 18  1  0  0  0
 17 18  1  0  0  0
 19 20  1  0  0  0
 20 21  2  0  0  0
 21 22  1  0  0  0
 22 23  1  0  0  0
 23 24  1  0  0  0
 24 25  1  0  0  0
 25 26  2  0  0  0
 25 27  1  0  0  0
 27 28  1  0  0  0
M  END
> <COMPND>
KG8hKT.pdb

> <AUTHOR>
GENERATED BY OPEN BABEL 3.1.0

> <MASTER>
        0    0    0    0    0    0    0    0   28    0   28    0

> <minimizedAffinity>
-8.35943

> <CNNscore>
0.6882465482

> <CNNaffinity>
5.3609647751

> <CNN_VS>
3.6896655560

> <CNNaffinity_variance>
0.4019290805

$$$$



 28 28  0  0  0  0  0  0  0  0999 V2000
   10.9674  -20.8736   -7.6609 C   0  0  0  0  0  0  0  0  0  0  0  0
   10.2015  -21.6203   -6.5465 C   0  0  0  0  0  0  0  0  0  0  0  0
    9.1070  -20.6646   -6.0653 C   0  0  0  0  0  0  0  0  0  0  0  0
    9.6010  -19.3273   -6.4702 C   0  0  0  0  0  0  0  0  0  0  0  0
    9.0731  -18.2867   -6.1087 O   0  0  0  0  0  0  0  0  0  0  0  0
   10.8175  -19.3737   -7.3296 C   0  0  0  0  0  0  0  0  0  0  0  0
    9.6280  -22.8082   -7.0280 O   0  0  0  0  0  0  0  0  0  0  0  0
   10.3292  -23.5070   -6.9724 H   0  0  0  0  0  0  0  0  0  0  0  0
   12.9055  -22.2618   -6.9484 C   0  0  0  0  0  0  0  0  0  0  0  0
   12.4150  -21.2961   -7.7415 C   0  0  0  0  0  0  0  0  0  0  0  0
   14.3604  -22.6739   -6.9916 C   0  0  0  0  0  0  0  0  0  0  0  0
   14.8972  -22.6679   -5.6936 O   0  0  0  0  0  0  0  0  0  0  0  0
   14.9906  -21.7163   -5.4267 H   0  0  0  0  0  0  0  0  0  0  0  0
   14.5379  -24.0734   -7.6067 C   0  0  0  0  0  0  0  0  0  0  0  0
   13.2040  -24.8367   -7.7063 C   0  0  0  0  0  0  0  0  0  0  0  0
   12.8992  -25.6588   -6.4449 C   0  0  0  0  0  0  0  0  0  0  0  0
   14.0294  -26.1982   -4.2500 C   0  0  0  0  0  0  0  0  0  0  0  0
   14.1736  -26.1923   -5.7691 C   0  0  0  0  0  0  0  0  0  0  0  0
   10.7277  -18.4779   -8.5844 C   0  0  0  0  0  0  0  0  0  0  0  0
   11.3367  -17.1036   -8.4073 C   0  0  0  0  0  0  0  0  0  0  0  0
   10.7567  -15.9723   -8.8431 C   0  0  0  0  0  0  0  0  0  0  0  0
    9.4113  -15.9016   -9.5295 C   0  0  0  0  0  0  0  0  0  0  0  0
    8.2664  -15.8084   -8.5093 C   0  0  0  0  0  0  0  0  0  0  0  0
    6.8760  -15.6589   -9.1535 C   0  0  0  0  0  0  0  0  0  0  0  0
    5.7845  -16.1804   -8.2665 C   0  0  0  0  0  0  0  0  0  0  0  0
    5.6028  -17.4227   -8.1599 O   0  0  0  0  0  0  0  0  0  0  0  0
    4.9606  -15.3014   -7.5720 O   0  0  0  0  0  0  0  0  0  0  0  0
    4.2193  -15.6457   -6.9754 H   0  0  0  0  0  0  0  0  0  0  0  0
  1 10  1  0  0  0
  1  2  1  0  0  0
  1  6  1  0  0  0
  2  3  1  0  0  0
  2  7  1  0  0  0
  3  4  1  0  0  0
  4  5  2  0  0  0
  4  6  1  0  0  0
  6 19  1  0  0  0
  7  8  1  0  0  0
  9 11  1  0  0  0
  9 10  2  0  0  0
 11 14  1  0  0  0
 11 12  1  0  0  0
 12 13  1  0  0  0
 14 15  1  0  0  0
 15 16  1  0  0  0
 16 18  1  0  0  0
 17 18  1  0  0  0
 19 20  1  0  0  0
 20 21  2  0  0  0
 21 22  1  0  0  0
 22 23  1  0  0  0
 23 24  1  0  0  0
 24 25  1  0  0  0
 25 26  2  0  0  0
 25 27  1  0  0  0
 27 28  1  0  0  0
M  END
> <COMPND>
KG8hKT.pdb

> <AUTHOR>
GENERATED BY OPEN BABEL 3.1.0

> <MASTER>
        0    0    0    0    0    0    0    0   28    0   28    0

> <minimizedAffinity>
-8.28551

> <CNNscore>
0.6154130101

> <CNNaffinity>
5.1161985397

> <CNN_VS>
3.1485750675

> <CNNaffinity_variance>
0.4310568273

$$$$



 28 28  0  0  0  0  0  0  0  0999 V2000
    7.1464  -16.5829   -9.5112 C   0  0  0  0  0  0  0  0  0  0  0  0
    6.7143  -17.9380   -8.9084 C   0  0  0  0  0  0  0  0  0  0  0  0
    7.8806  -18.4098   -8.0366 C   0  0  0  0  0  0  0  0  0  0  0  0
    9.0476  -17.6728   -8.5766 C   0  0  0  0  0  0  0  0  0  0  0  0
   10.1976  -17.9129   -8.2419 O   0  0  0  0  0  0  0  0  0  0  0  0
    8.6869  -16.6384   -9.5867 C   0  0  0  0  0  0  0  0  0  0  0  0
    5.5529  -17.8045   -8.1306 O   0  0  0  0  0  0  0  0  0  0  0  0
    4.7834  -17.8702   -8.7524 H   0  0  0  0  0  0  0  0  0  0  0  0
    5.4205  -15.5727  -10.9916 C   0  0  0  0  0  0  0  0  0  0  0  0
    6.5196  -16.3324  -10.8621 C   0  0  0  0  0  0  0  0  0  0  0  0
    4.7597  -15.3393  -12.3323 C   0  0  0  0  0  0  0  0  0  0  0  0
    3.6079  -16.1356  -12.4421 O   0  0  0  0  0  0  0  0  0  0  0  0
    3.9169  -17.0719  -12.5577 H   0  0  0  0  0  0  0  0  0  0  0  0
    4.3748  -13.8621  -12.5280 C   0  0  0  0  0  0  0  0  0  0  0  0
    2.8968  -13.6957  -12.9276 C   0  0  0  0  0  0  0  0  0  0  0  0
    2.0477  -13.0810  -11.8046 C   0  0  0  0  0  0  0  0  0  0  0  0
    0.4000  -14.6625  -12.8863 C   0  0  0  0  0  0  0  0  0  0  0  0
    0.5947  -13.5850  -11.8235 C   0  0  0  0  0  0  0  0  0  0  0  0
    9.3591  -15.2695   -9.3431 C   0  0  0  0  0  0  0  0  0  0  0  0
    8.4672  -14.2565   -8.6579 C   0  0  0  0  0  0  0  0  0  0  0  0
    8.4298  -14.0802   -7.3262 C   0  0  0  0  0  0  0  0  0  0  0  0
    9.2893  -14.8285   -6.3324 C   0  0  0  0  0  0  0  0  0  0  0  0
   10.2135  -13.8741   -5.5609 C   0  0  0  0  0  0  0  0  0  0  0  0
   10.4006  -14.2572   -4.0815 C   0  0  0  0  0  0  0  0  0  0  0  0
   10.8970  -15.6636   -3.9215 C   0  0  0  0  0  0  0  0  0  0  0  0
   12.0078  -15.9965   -4.4146 O   0  0  0  0  0  0  0  0  0  0  0  0
   10.1324  -16.6081   -3.2454 O   0  0  0  0  0  0  0  0  0  0  0  0
   10.4587  -17.5599   -3.1374 H   0  0  0  0  0  0  0  0  0  0  0  0
  1 10  1  0  0  0
  1  2  1  0  0  0
  1  6  1  0  0  0
  2  3  1  0  0  0
  2  7  1  0  0  0
  3  4  1  0  0  0
  4  5  2  0  0  0
  4  6  1  0  0  0
  6 19  1  0  0  0
  7  8  1  0  0  0
  9 11  1  0  0  0
  9 10  2  0  0  0
 11 14  1  0  0  0
 11 12  1  0  0  0
 12 13  1  0  0  0
 14 15  1  0  0  0
 15 16  1  0  0  0
 16 18  1  0  0  0
 17 18  1  0  0  0
 19 20  1  0  0  0
 20 21  2  0  0  0
 21 22  1  0  0  0
 22 23  1  0  0  0
 23 24  1  0  0  0
 24 25  1  0  0  0
 25 26  2  0  0  0
 25 27  1  0  0  0
 27 28  1  0  0  0
M  END
> <COMPND>
KG8hKT.pdb

> <AUTHOR>
GENERATED BY OPEN BABEL 3.1.0

> <MASTER>
        0    0    0    0    0    0    0    0   28    0   28    0

> <minimizedAffinity>
-7.35900

> <CNNscore>
0.5993599892

> <CNNaffinity>
4.9764609337

> <CNN_VS>
2.9826915264

> <CNNaffinity_variance>
0.3084795177

$$$$



 28 28  0  0  0  0  0  0  0  0999 V2000
   10.4390  -18.5774   -7.7871 C   0  0  0  0  0  0  0  0  0  0  0  0
    9.5732  -18.7895   -6.5255 C   0  0  0  0  0  0  0  0  0  0  0  0
    9.4904  -17.4287   -5.8296 C   0  0  0  0  0  0  0  0  0  0  0  0
   10.6695  -16.6942   -6.3461 C   0  0  0  0  0  0  0  0  0  0  0  0
   11.0359  -15.6217   -5.8904 O   0  0  0  0  0  0  0  0  0  0  0  0
   11.3807  -17.4027   -7.4474 C   0  0  0  0  0  0  0  0  0  0  0  0
    8.2859  -19.2406   -6.8590 O   0  0  0  0  0  0  0  0  0  0  0  0
    8.3429  -20.2264   -6.9485 H   0  0  0  0  0  0  0  0  0  0  0  0
   11.1810  -20.9209   -7.4018 C   0  0  0  0  0  0  0  0  0  0  0  0
   11.2005  -19.8229   -8.1738 C   0  0  0  0  0  0  0  0  0  0  0  0
   11.9651  -22.1652   -7.7562 C   0  0  0  0  0  0  0  0  0  0  0  0
   12.9317  -22.4179   -6.7689 O   0  0  0  0  0  0  0  0  0  0  0  0
   13.6372  -21.7276   -6.8755 H   0  0  0  0  0  0  0  0  0  0  0  0
   11.0499  -23.3946   -7.8956 C   0  0  0  0  0  0  0  0  0  0  0  0
   10.4305  -23.8124   -6.5489 C   0  0  0  0  0  0  0  0  0  0  0  0
   10.5147  -25.3268   -6.3054 C   0  0  0  0  0  0  0  0  0  0  0  0
   12.9014  -25.8832   -5.6891 C   0  0  0  0  0  0  0  0  0  0  0  0
   11.4820  -25.6858   -5.1649 C   0  0  0  0  0  0  0  0  0  0  0  0
   11.6978  -16.5042   -8.6628 C   0  0  0  0  0  0  0  0  0  0  0  0
   10.6921  -16.6107   -9.7890 C   0  0  0  0  0  0  0  0  0  0  0  0
    9.5918  -15.8441   -9.8772 C   0  0  0  0  0  0  0  0  0  0  0  0
    9.2215  -14.7507   -8.9007 C   0  0  0  0  0  0  0  0  0  0  0  0
    7.8206  -14.9764   -8.3121 C   0  0  0  0  0  0  0  0  0  0  0  0
    7.2634  -16.3887   -8.5680 C   0  0  0  0  0  0  0  0  0  0  0  0
    5.7640  -16.4051   -8.6059 C   0  0  0  0  0  0  0  0  0  0  0  0
    5.1660  -17.1057   -9.4659 O   0  0  0  0  0  0  0  0  0  0  0  0
    5.0280  -15.6400   -7.7078 O   0  0  0  0  0  0  0  0  0  0  0  0
    4.0163  -15.6425   -7.7303 H   0  0  0  0  0  0  0  0  0  0  0  0
  1 10  1  0  0  0
  1  2  1  0  0  0
  1  6  1  0  0  0
  2  3  1  0  0  0
  2  7  1  0  0  0
  3  4  1  0  0  0
  4  5  2  0  0  0
  4  6  1  0  0  0
  6 19  1  0  0  0
  7  8  1  0  0  0
  9 11  1  0  0  0
  9 10  2  0  0  0
 11 14  1  0  0  0
 11 12  1  0  0  0
 12 13  1  0  0  0
 14 15  1  0  0  0
 15 16  1  0  0  0
 16 18  1  0  0  0
 17 18  1  0  0  0
 19 20  1  0  0  0
 20 21  2  0  0  0
 21 22  1  0  0  0
 22 23  1  0  0  0
 23 24  1  0  0  0
 24 25  1  0  0  0
 25 26  2  0  0  0
 25 27  1  0  0  0
 27 28  1  0  0  0
M  END
> <COMPND>
KG8hKT.pdb

> <AUTHOR>
GENERATED BY OPEN BABEL 3.1.0

> <MASTER>
        0    0    0    0    0    0    0    0   28    0   28    0

> <minimizedAffinity>
-7.94261

> <CNNscore>
0.5724229813

> <CNNaffinity>
5.2069463730

> <CNN_VS>
2.9805757999

> <CNNaffinity_variance>
0.4311945438

$$$$



 28 28  0  0  0  0  0  0  0  0999 V2000
    5.8904  -18.6396   -9.6595 C   0  0  0  0  0  0  0  0  0  0  0  0
    6.0924  -17.2015   -9.1328 C   0  0  0  0  0  0  0  0  0  0  0  0
    5.5755  -16.2676  -10.2299 C   0  0  0  0  0  0  0  0  0  0  0  0
    5.6302  -17.0974  -11.4566 C   0  0  0  0  0  0  0  0  0  0  0  0
    5.4503  -16.6414  -12.5755 O   0  0  0  0  0  0  0  0  0  0  0  0
    5.9568  -18.5280  -11.1973 C   0  0  0  0  0  0  0  0  0  0  0  0
    5.3798  -16.9885   -7.9418 O   0  0  0  0  0  0  0  0  0  0  0  0
    5.9576  -17.3080   -7.2021 H   0  0  0  0  0  0  0  0  0  0  0  0
    8.0484  -19.1554   -8.5335 C   0  0  0  0  0  0  0  0  0  0  0  0
    6.9219  -19.5982   -9.1139 C   0  0  0  0  0  0  0  0  0  0  0  0
    9.1080  -20.1012   -8.0124 C   0  0  0  0  0  0  0  0  0  0  0  0
    9.7568  -20.7305   -9.0876 O   0  0  0  0  0  0  0  0  0  0  0  0
    9.1117  -21.3809   -9.4704 H   0  0  0  0  0  0  0  0  0  0  0  0
   10.1510  -19.3684   -7.1501 C   0  0  0  0  0  0  0  0  0  0  0  0
    9.5202  -18.7176   -5.9049 C   0  0  0  0  0  0  0  0  0  0  0  0
    9.6431  -17.1863   -5.9134 C   0  0  0  0  0  0  0  0  0  0  0  0
    9.4716  -15.1089   -4.4848 C   0  0  0  0  0  0  0  0  0  0  0  0
    9.7914  -16.6009   -4.4990 C   0  0  0  0  0  0  0  0  0  0  0  0
    5.0220  -19.5211  -11.9218 C   0  0  0  0  0  0  0  0  0  0  0  0
    3.6434  -19.6327  -11.3069 C   0  0  0  0  0  0  0  0  0  0  0  0
    2.5349  -19.1239  -11.8711 C   0  0  0  0  0  0  0  0  0  0  0  0
    2.4949  -18.4098  -13.2033 C   0  0  0  0  0  0  0  0  0  0  0  0
    1.1589  -18.6446  -13.9245 C   0  0  0  0  0  0  0  0  0  0  0  0
    0.4817  -17.3488  -14.4073 C   0  0  0  0  0  0  0  0  0  0  0  0
   -0.1500  -16.5885  -13.2791 C   0  0  0  0  0  0  0  0  0  0  0  0
   -1.0143  -17.1477  -12.5523 O   0  0  0  0  0  0  0  0  0  0  0  0
    0.2002  -15.2644  -13.0385 O   0  0  0  0  0  0  0  0  0  0  0  0
   -0.2250  -14.7437  -12.2821 H   0  0  0  0  0  0  0  0  0  0  0  0
  1 10  1  0  0  0
  1  2  1  0  0  0
  1  6  1  0  0  0
  2  3  1  0  0  0
  2  7  1  0  0  0
  3  4  1  0  0  0
  4  5  2  0  0  0
  4  6  1  0  0  0
  6 19  1  0  0  0
  7  8  1  0  0  0
  9 11  1  0  0  0
  9 10  2  0  0  0
 11 14  1  0  0  0
 11 12  1  0  0  0
 12 13  1  0  0  0
 14 15  1  0  0  0
 15 16  1  0  0  0
 16 18  1  0  0  0
 17 18  1  0  0  0
 19 20  1  0  0  0
 20 21  2  0  0  0
 21 22  1  0  0  0
 22 23  1  0  0  0
 23 24  1  0  0  0
 24 25  1  0  0  0
 25 26  2  0  0  0
 25 27  1  0  0  0
 27 28  1  0  0  0
M  END
> <COMPND>
KG8hKT.pdb

> <AUTHOR>
GENERATED BY OPEN BABEL 3.1.0

> <MASTER>
        0    0    0    0    0    0    0    0   28    0   28    0

> <minimizedAffinity>
-7.06123

> <CNNscore>
0.5554973483

> <CNNaffinity>
4.9031877518

> <CNN_VS>
2.7237076759

> <CNNaffinity_variance>
0.3554746509

$$$$



 28 28  0  0  0  0  0  0  0  0999 V2000
    6.9397  -15.5769   -8.1399 C   0  0  0  0  0  0  0  0  0  0  0  0
    6.0099  -14.3720   -8.4044 C   0  0  0  0  0  0  0  0  0  0  0  0
    5.3310  -14.6427   -9.7493 C   0  0  0  0  0  0  0  0  0  0  0  0
    6.2375  -15.6070  -10.4162 C   0  0  0  0  0  0  0  0  0  0  0  0
    6.1144  -15.9340  -11.5868 O   0  0  0  0  0  0  0  0  0  0  0  0
    7.3279  -16.1114   -9.5347 C   0  0  0  0  0  0  0  0  0  0  0  0
    5.0442  -14.2399   -7.3937 O   0  0  0  0  0  0  0  0  0  0  0  0
    5.4642  -13.7166   -6.6638 H   0  0  0  0  0  0  0  0  0  0  0  0
    8.4334  -15.8176   -6.1645 C   0  0  0  0  0  0  0  0  0  0  0  0
    8.1495  -15.1961   -7.3200 C   0  0  0  0  0  0  0  0  0  0  0  0
    9.6213  -15.4262   -5.3136 C   0  0  0  0  0  0  0  0  0  0  0  0
    9.2027  -15.1717   -3.9972 O   0  0  0  0  0  0  0  0  0  0  0  0
    8.7069  -14.3118   -4.0154 H   0  0  0  0  0  0  0  0  0  0  0  0
   10.6983  -16.5254   -5.2991 C   0  0  0  0  0  0  0  0  0  0  0  0
   11.6114  -16.4593   -6.5376 C   0  0  0  0  0  0  0  0  0  0  0  0
   11.2718  -17.5363   -7.5791 C   0  0  0  0  0  0  0  0  0  0  0  0
   12.1785  -17.3453   -9.9301 C   0  0  0  0  0  0  0  0  0  0  0  0
   11.0505  -16.9475   -8.9826 C   0  0  0  0  0  0  0  0  0  0  0  0
    7.5002  -17.6457   -9.5735 C   0  0  0  0  0  0  0  0  0  0  0  0
    6.6405  -18.3894   -8.5741 C   0  0  0  0  0  0  0  0  0  0  0  0
    5.4258  -18.8862   -8.8637 C   0  0  0  0  0  0  0  0  0  0  0  0
    4.7646  -18.8120  -10.2214 C   0  0  0  0  0  0  0  0  0  0  0  0
    3.7611  -19.9582  -10.4191 C   0  0  0  0  0  0  0  0  0  0  0  0
    3.4368  -20.2473  -11.8962 C   0  0  0  0  0  0  0  0  0  0  0  0
    2.4762  -19.2477  -12.4688 C   0  0  0  0  0  0  0  0  0  0  0  0
    2.9028  -18.3189  -13.2060 O   0  0  0  0  0  0  0  0  0  0  0  0
    1.1185  -19.3293  -12.1795 O   0  0  0  0  0  0  0  0  0  0  0  0
    0.4651  -18.6558  -12.5585 H   0  0  0  0  0  0  0  0  0  0  0  0
  1 10  1  0  0  0
  1  2  1  0  0  0
  1  6  1  0  0  0
  2  3  1  0  0  0
  2  7  1  0  0  0
  3  4  1  0  0  0
  4  5  2  0  0  0
  4  6  1  0  0  0
  6 19  1  0  0  0
  7  8  1  0  0  0
  9 11  1  0  0  0
  9 10  2  0  0  0
 11 14  1  0  0  0
 11 12  1  0  0  0
 12 13  1  0  0  0
 14 15  1  0  0  0
 15 16  1  0  0  0
 16 18  1  0  0  0
 17 18  1  0  0  0
 19 20  1  0  0  0
 20 21  2  0  0  0
 21 22  1  0  0  0
 22 23  1  0  0  0
 23 24  1  0  0  0
 24 25  1  0  0  0
 25 26  2  0  0  0
 25 27  1  0  0  0
 27 28  1  0  0  0
M  END
> <COMPND>
KG8hKT.pdb

> <AUTHOR>
GENERATED BY OPEN BABEL 3.1.0

> <MASTER>
        0    0    0    0    0    0    0    0   28    0   28    0

> <minimizedAffinity>
-7.83218

> <CNNscore>
0.5154066086

> <CNNaffinity>
5.1636033058

> <CNN_VS>
2.6613552570

> <CNNaffinity_variance>
0.5485764146

$$$$



 28 28  0  0  0  0  0  0  0  0999 V2000
   10.2132  -13.9283   -5.9361 C   0  0  0  0  0  0  0  0  0  0  0  0
   11.1980  -12.9985   -6.6790 C   0  0  0  0  0  0  0  0  0  0  0  0
   11.5678  -13.7178   -7.9785 C   0  0  0  0  0  0  0  0  0  0  0  0
   11.2710  -15.1414   -7.6926 C   0  0  0  0  0  0  0  0  0  0  0  0
   11.5961  -16.0509   -8.4405 O   0  0  0  0  0  0  0  0  0  0  0  0
   10.5706  -15.3577   -6.3952 C   0  0  0  0  0  0  0  0  0  0  0  0
   10.6107  -11.7556   -6.9651 O   0  0  0  0  0  0  0  0  0  0  0  0
   10.7319  -11.1901   -6.1598 H   0  0  0  0  0  0  0  0  0  0  0  0
   11.2404  -12.9996   -3.8689 C   0  0  0  0  0  0  0  0  0  0  0  0
   10.3021  -13.7739   -4.4364 C   0  0  0  0  0  0  0  0  0  0  0  0
   11.3657  -12.8605   -2.3677 C   0  0  0  0  0  0  0  0  0  0  0  0
   12.7186  -12.9159   -1.9942 O   0  0  0  0  0  0  0  0  0  0  0  0
   13.0093  -13.8581   -2.1096 H   0  0  0  0  0  0  0  0  0  0  0  0
   10.7550  -11.5403   -1.8652 C   0  0  0  0  0  0  0  0  0  0  0  0
    9.7695  -11.7624   -0.7027 C   0  0  0  0  0  0  0  0  0  0  0  0
   10.4757  -11.8666    0.6576 C   0  0  0  0  0  0  0  0  0  0  0  0
    8.1348  -11.5432    1.5530 C   0  0  0  0  0  0  0  0  0  0  0  0
    9.6208  -11.3082    1.8077 C   0  0  0  0  0  0  0  0  0  0  0  0
    9.3435  -16.2899   -6.4982 C   0  0  0  0  0  0  0  0  0  0  0  0
    8.0292  -15.5626   -6.6850 C   0  0  0  0  0  0  0  0  0  0  0  0
    7.5102  -15.2635   -7.8879 C   0  0  0  0  0  0  0  0  0  0  0  0
    8.1330  -15.6385   -9.2137 C   0  0  0  0  0  0  0  0  0  0  0  0
    7.0763  -16.1515  -10.2038 C   0  0  0  0  0  0  0  0  0  0  0  0
    5.8286  -16.7438   -9.5233 C   0  0  0  0  0  0  0  0  0  0  0  0
    4.9233  -17.4290  -10.5036 C   0  0  0  0  0  0  0  0  0  0  0  0
    4.6139  -16.8524  -11.5805 O   0  0  0  0  0  0  0  0  0  0  0  0
    4.4098  -18.6910  -10.2255 O   0  0  0  0  0  0  0  0  0  0  0  0
    3.7948  -19.1575  -10.8800 H   0  0  0  0  0  0  0  0  0  0  0  0
  1 10  1  0  0  0
  1  2  1  0  0  0
  1  6  1  0  0  0
  2  3  1  0  0  0
  2  7  1  0  0  0
  3  4  1  0  0  0
  4  5  2  0  0  0
  4  6  1  0  0  0
  6 19  1  0  0  0
  7  8  1  0  0  0
  9 11  1  0  0  0
  9 10  2  0  0  0
 11 14  1  0  0  0
 11 12  1  0  0  0
 12 13  1  0  0  0
 14 15  1  0  0  0
 15 16  1  0  0  0
 16 18  1  0  0  0
 17 18  1  0  0  0
 19 20  1  0  0  0
 20 21  2  0  0  0
 21 22  1  0  0  0
 22 23  1  0  0  0
 23 24  1  0  0  0
 24 25  1  0  0  0
 25 26  2  0  0  0
 25 27  1  0  0  0
 27 28  1  0  0  0
M  END
> <COMPND>
KG8hKT.pdb

> <AUTHOR>
GENERATED BY OPEN BABEL 3.1.0

> <MASTER>
        0    0    0    0    0    0    0    0   28    0   28    0

> <minimizedAffinity>
-7.48930

> <CNNscore>
0.4925988913

> <CNNaffinity>
4.8413424492

> <CNN_VS>
2.3848400116

> <CNNaffinity_variance>
0.3004172146

$$$$



 28 28  0  0  0  0  0  0  0  0999 V2000
   10.5329  -16.0594   -5.1172 C   0  0  0  0  0  0  0  0  0  0  0  0
    9.8594  -16.6327   -3.8507 C   0  0  0  0  0  0  0  0  0  0  0  0
    9.4704  -18.0741   -4.1882 C   0  0  0  0  0  0  0  0  0  0  0  0
    9.4124  -18.0881   -5.6691 C   0  0  0  0  0  0  0  0  0  0  0  0
    8.9692  -19.0306   -6.3075 O   0  0  0  0  0  0  0  0  0  0  0  0
    9.9137  -16.8344   -6.2995 C   0  0  0  0  0  0  0  0  0  0  0  0
   10.7346  -16.6129   -2.7528 O   0  0  0  0  0  0  0  0  0  0  0  0
   10.6626  -15.7116   -2.3462 H   0  0  0  0  0  0  0  0  0  0  0  0
   11.2636  -13.6987   -4.8270 C   0  0  0  0  0  0  0  0  0  0  0  0
   10.3312  -14.5684   -5.2468 C   0  0  0  0  0  0  0  0  0  0  0  0
   11.0637  -12.2019   -4.9175 C   0  0  0  0  0  0  0  0  0  0  0  0
   11.7588  -11.5634   -3.8773 O   0  0  0  0  0  0  0  0  0  0  0  0
   11.2628  -11.7579   -3.0396 H   0  0  0  0  0  0  0  0  0  0  0  0
   11.5473  -11.6435   -6.2676 C   0  0  0  0  0  0  0  0  0  0  0  0
   12.9308  -12.1940   -6.6610 C   0  0  0  0  0  0  0  0  0  0  0  0
   12.9052  -12.9551   -7.9952 C   0  0  0  0  0  0  0  0  0  0  0  0
   13.8836  -15.2596   -8.3386 C   0  0  0  0  0  0  0  0  0  0  0  0
   14.1889  -13.7683   -8.2325 C   0  0  0  0  0  0  0  0  0  0  0  0
   10.9061  -17.0741   -7.4582 C   0  0  0  0  0  0  0  0  0  0  0  0
   10.2647  -17.0823   -8.8292 C   0  0  0  0  0  0  0  0  0  0  0  0
    9.7044  -15.9990   -9.3937 C   0  0  0  0  0  0  0  0  0  0  0  0
    9.6676  -14.6224   -8.7692 C   0  0  0  0  0  0  0  0  0  0  0  0
    8.2351  -14.2179   -8.3894 C   0  0  0  0  0  0  0  0  0  0  0  0
    7.1524  -15.1069   -9.0282 C   0  0  0  0  0  0  0  0  0  0  0  0
    6.1985  -15.6548   -8.0084 C   0  0  0  0  0  0  0  0  0  0  0  0
    6.1865  -16.8902   -7.7609 O   0  0  0  0  0  0  0  0  0  0  0  0
    5.3155  -14.8103   -7.3443 O   0  0  0  0  0  0  0  0  0  0  0  0
    4.6660  -15.1733   -6.6585 H   0  0  0  0  0  0  0  0  0  0  0  0
  1 10  1  0  0  0
  1  2  1  0  0  0
  1  6  1  0  0  0
  2  3  1  0  0  0
  2  7  1  0  0  0
  3  4  1  0  0  0
  4  5  2  0  0  0
  4  6  1  0  0  0
  6 19  1  0  0  0
  7  8  1  0  0  0
  9 11  1  0  0  0
  9 10  2  0  0  0
 11 14  1  0  0  0
 11 12  1  0  0  0
 12 13  1  0  0  0
 14 15  1  0  0  0
 15 16  1  0  0  0
 16 18  1  0  0  0
 17 18  1  0  0  0
 19 20  1  0  0  0
 20 21  2  0  0  0
 21 22  1  0  0  0
 22 23  1  0  0  0
 23 24  1  0  0  0
 24 25  1  0  0  0
 25 26  2  0  0  0
 25 27  1  0  0  0
 27 28  1  0  0  0
M  END
> <COMPND>
KG8hKT.pdb

> <AUTHOR>
GENERATED BY OPEN BABEL 3.1.0

> <MASTER>
        0    0    0    0    0    0    0    0   28    0   28    0

> <minimizedAffinity>
-7.16263

> <CNNscore>
0.4897061288

> <CNNaffinity>
5.1221609116

> <CNN_VS>
2.5083537102

> <CNNaffinity_variance>
0.3291604221

$$$$
